tests/fuzzer/corpus_json/21_random_038.json
{
  "version": "1.0",
  "type": "input",
  "is_batch": false,
  "attributes": {},
  "data": {
    "node": [
      {
        "id": 0,
        "u_rated": 110000.0
      },
      {
        "id": 1,
        "u_rated": 110000.0
      },
      {
        "id": 2,
        "u_rated": 110000.0
      },
      {
        "id": 3,
        "u_rated": 110000.0
      },
      {
        "id": 4,
        "u_rated": 110000.0
      },
      {
        "id": 5,
        "u_rated": 110000.0
      },
      {
        "id": 6,
        "u_rated": 110000.0
      },
      {
        "id": 7,
        "u_rated": 110000.0
      },
      {
        "id": 8,
        "u_rated": 110000.0
      },
      {
        "id": 9,
        "u_rated": 110000.0
      },
      {
        "id": 10,
        "u_rated": 110000.0
      },
      {
        "id": 11,
        "u_rated": 110000.0
      }
    ],
    "source": [
      {
        "id": 12,
        "node": 0,
        "status": 1,
        "u_ref": 1.0448597641312578,
        "u_ref_angle": 0.0,
        "sk": 429078082.0334924,
        "rx_ratio": 0.03311573477982538,
        "z01_ratio": 1.0
      }
    ],
    "line": [
      {
        "id": 13,
        "from_node": 0,
        "to_node": 1,
        "from_status": 1,
        "to_status": 1,
        "r1": 1.8746586905300915,
        "x1": 3.0401819819597646,
        "c1": 1.7009129070200167e-07,
        "tan1": 0.0,
        "r0": 0.3,
        "x0": 0.3,
        "c0": 1e-09,
        "tan0": 0.0,
        "i_n": 351.12139228551274
      },
      {
        "id": 14,
        "from_node": 1,
        "to_node": 2,
        "from_status": 1,
        "to_status": 1,
        "r1": 1.3348165791520912,
        "x1": 1.6473932423472575,
        "c1": 7.265968271185355e-07,
        "tan1": 0.0,
        "r0": 0.3,
        "x0": 0.3,
        "c0": 1e-09,
        "tan0": 0.0,
        "i_n": 478.32015470043285
      },
      {
        "id": 15,
        "from_node": 2,
        "to_node": 3,
        "from_status": 1,
        "to_status": 1,
        "r1": 4.813959440733472,
        "x1": 2.914207071093458,
        "c1": 2.2329304317795007e-07,
        "tan1": 0.0,
        "r0": 0.3,
        "x0": 0.3,
        "c0": 1e-09,
        "tan0": 0.0,
        "i_n": 616.6697161162324
      },
      {
        "id": 16,
        "from_node": 3,
        "to_node": 4,
        "from_status": 1,
        "to_status": 1,
        "r1": 2.6402457985471472,
        "x1": 0.7041471614178851,
        "c1": 5.26846246767392e-07,
        "tan1": 0.0,
        "r0": 0.3,
        "x0": 0.3,
        "c0": 1e-09,
        "tan0": 0.0,
        "i_n": 21.565238137472416
      },
      {
        "id": 17,
        "from_node": 4,
        "to_node": 5,
        "from_status": 1,
        "to_status": 1,
        "r1": 1.8720360741954567,
        "x1": 2.6819336753191187,
        "c1": 6.862225596861035e-07,
        "tan1": 0.0,
        "r0": 0.3,
        "x0": 0.3,
        "c0": 1e-09,
        "tan0": 0.0,
        "i_n": 959.8197250308797
      },
      {
        "id": 18,
        "from_node": 5,
        "to_node": 6,
        "from_status": 1,
        "to_status": 1,
        "r1": 3.0733143726163226,
        "x1": 0.12288906224195983,
        "c1": 4.7553390340842525e-07,
        "tan1": 0.0,
        "r0": 0.3,
        "x0": 0.3,
        "c0": 1e-09,
        "tan0": 0.0,
        "i_n": 257.6988819491285
      },
      {
        "id": 19,
        "from_node": 6,
        "to_node": 7,
        "from_status": 1,
        "to_status": 1,
        "r1": 3.7364308583796713,
        "x1": 4.468153918430871,
        "c1": 8.678004232970216e-08,
        "tan1": 0.0,
        "r0": 0.3,
        "x0": 0.3,
        "c0": 1e-09,
        "tan0": 0.0,
        "i_n": 773.9133602423005
      },
      {
        "id": 20,
        "from_node": 7,
        "to_node": 8,
        "from_status": 1,
        "to_status": 1,
        "r1": 1.4661020664914215,
        "x1": 0.9141504152098201,
        "c1": 4.5353319428936086e-07,
        "tan1": 0.0,
        "r0": 0.3,
        "x0": 0.3,
        "c0": 1e-09,
        "tan0": 0.0,
        "i_n": 424.5696982256273
      },
      {
        "id": 21,
        "from_node": 8,
        "to_node": 9,
        "from_status": 1,
        "to_status": 1,
        "r1": 1.4376349239389796,
        "x1": 1.3193198732611449,
        "c1": 4.334984888445319e-07,
        "tan1": 0.0,
        "r0": 0.3,
        "x0": 0.3,
        "c0": 1e-09,
        "tan0": 0.0,
        "i_n": 692.579082200429
      },
      {
        "id": 22,
        "from_node": 9,
        "to_node": 10,
        "from_status": 1,
        "to_status": 1,
        "r1": 0.8196431286060496,
        "x1": 1.8641276314326638,
        "c1": 2.391994559987378e-07,
        "tan1": 0.0,
        "r0": 0.3,
        "x0": 0.3,
        "c0": 1e-09,
        "tan0": 0.0,
        "i_n": 731.2990409282993
      },
      {
        "id": 23,
        "from_node": 10,
        "to_node": 11,
        "from_status": 1,
        "to_status": 1,
        "r1": 1.2402364352420336,
        "x1": 3.698384463494224,
        "c1": 2.877332379543862e-08,
        "tan1": 0.0,
        "r0": 0.3,
        "x0": 0.3,
        "c0": 1e-09,
        "tan0": 0.0,
        "i_n": 857.1866294631112
      }
    ],
    "sym_load": [
      {
        "id": 24,
        "node": 1,
        "status": 1,
        "type": 0,
        "p_specified": 59201.293236094876,
        "q_specified": 6851.304183412496
      },
      {
        "id": 25,
        "node": 2,
        "status": 1,
        "type": 2,
        "p_specified": 97289.16663731547,
        "q_specified": 6587.484909031191
      },
      {
        "id": 26,
        "node": 6,
        "status": 1,
        "type": 0,
        "p_specified": -55817.28312688399,
        "q_specified": -7084.00924734334
      },
      {
        "id": 27,
        "node": 7,
        "status": 1,
        "type": 2,
        "p_specified": -87071.05046299999,
        "q_specified": 1971.8299188770234
      },
      {
        "id": 28,
        "node": 8,
        "status": 1,
        "type": 1,
        "p_specified": 59808.591017622675,
        "q_specified": -7092.859987070786
      },
      {
        "id": 29,
        "node": 9,
        "status": 1,
        "type": 2,
        "p_specified": 74336.1052159676,
        "q_specified": 7036.385325629755
      }
    ],
    "shunt": [
      {
        "id": 30,
        "node": 0,
        "status": 1,
        "g1": 3.40742265353315e-05,
        "b1": -4.955859832884477e-05,
        "g0": 0.0001,
        "b0": 0.0001
      }
    ]
  }
}